[TITLE]
;;Project Title/Notes

[OPTIONS]
;;Option             Value
FLOW_UNITS           CMS
INFILTRATION         MODIFIED_GREEN_AMPT
FLOW_ROUTING         KINWAVE
LINK_OFFSETS         DEPTH
MIN_SLOPE            0
ALLOW_PONDING        NO
SKIP_STEADY_STATE    NO

START_DATE           11/04/2014
START_TIME           00:00:00
REPORT_START_DATE    11/04/2014
REPORT_START_TIME    00:00:00
END_DATE             11/07/2014
END_TIME             12:00:00
SWEEP_START          01/01
SWEEP_END            12/31
DRY_DAYS             0
REPORT_STEP          00:01:00
WET_STEP             00:01:00
DRY_STEP             01:00:00
ROUTING_STEP         0:01:00 
RULE_STEP            00:00:00

INERTIAL_DAMPING     PARTIAL
NORMAL_FLOW_LIMITED  BOTH
FORCE_MAIN_EQUATION  H-W
VARIABLE_STEP        0.75
LENGTHENING_STEP     0
MIN_SURFAREA         12.566
MAX_TRIALS           8
HEAD_TOLERANCE       0.005
SYS_FLOW_TOL         5
LAT_FLOW_TOL         5
MINIMUM_STEP         0.5
THREADS              1

[EVAPORATION]
;;Data Source    Parameters
;;-------------- ----------------
CONSTANT         0
DRY_ONLY         NO

[RAINGAGES]
;;Name           Format    Interval SCF      Source    
;;-------------- --------- ------ ------ ----------
1                INTENSITY 0:01     1        TIMESERIES 1               

[SUBCATCHMENTS]
;;Name           Rain Gage        Outlet           Area     %Imperv  Width    %Slope   CurbLen  SnowPack        
;;-------------- ---------------- ---------------- -------- -------- -------- -------- -------- ----------------
S1               1                S2               1        100      1        1        0                        
S2               1                3                5        0        1        1        0                        
S3               1                3                5        100      500      1        0                        

[SUBAREAS]
;;Subcatchment   N-Imperv   N-Perv     S-Imperv   S-Perv     PctZero    RouteTo    PctRouted 
;;-------------- ---------- ---------- ---------- ---------- ---------- ---------- ----------
S1               0.0165       0.3732        1.522          5.2559          0          OUTLET    
S2               0.0165       0.3732        1.522          5.2559          0          OUTLET    
S3               0.0165       0.3732        1.522          5.2559          0          OUTLET    

[INFILTRATION]
;;Subcatchment   Suction    Ksat       IMD       
;;-------------- ---------- ---------- ----------
S1               98         0.5        4         
S2               0	    80         0
S3               3.0        0.5        4         

[OUTFALLS]
;;Name           Elevation  Type       Stage Data       Gated    Route To        
;;-------------- ---------- ---------- ---------------- -------- ----------------
3                0          FREE                        NO                       

[TIMESERIES]
;;Name           Date       Time       Value     
;;-------------- ---------- ---------- ----------
1                           0:01       80        
1                           0:02       80        
1                           0:03       80        
1                           0:04       80        
1                           0:05       80        
1                           0:06       80        
1                           0:07       80        
1                           0:08       80        
1                           0:09       80        
1                           0:10       80        
1                           0:11       80        
1                           0:12       80        
1                           0:13       80        
1                           0:14       80        
1                           0:15       80        
1                           0:16       80        
1                           0:17       80        
1                           0:18       80        
1                           0:19       80        
1                           0:20       80        
1                           0:21       80        
1                           0:22       80        
1                           0:23       80        
1                           0:24       80        
1                           0:25       80        
1                           0:26       80        
1                           0:27       80        
1                           0:28       80        
1                           0:29       80        
1                           0:30       80        

[REPORT]
;;Reporting Options
INPUT      YES
SUBCATCHMENTS ALL
NODES ALL
LINKS ALL

[TAGS]

[MAP]
DIMENSIONS -3972.557 5602.635 -1944.018 9369.923
Units      None

[COORDINATES]
;;Node           X-Coord            Y-Coord           
;;-------------- ------------------ ------------------
3                -2964.245          4775.087          

[VERTICES]
;;Link           X-Coord            Y-Coord           
;;-------------- ------------------ ------------------

[Polygons]
;;Subcatchment   X-Coord            Y-Coord           
;;-------------- ------------------ ------------------
S1               -2233.809          8144.896          
S1               -2233.809          8946.213          
S1               -3562.020          9198.683          
S1               -3605.928          8232.711          
S1               -2233.809          8144.896          
S2               -3836.443          6761.800          
S2               -2091.109          6750.823          
S2               -2036.224          5828.760          
S2               -3880.351          5773.875          
S2               -3836.443          6761.800          
S3               -4787.617          6958.337          
S3               -4861.485          6471.675          
S3               -5561.062          6545.543          
S3               -5487.194          7192.978          

[SYMBOLS]
;;Gage           X-Coord            Y-Coord           
;;-------------- ------------------ ------------------
1                -3160.323          9469.435          

